* This file contains 1.1V, 2.5V corner model parameters.
* Five corners are supported: TT, FF, SS, FNSP and SNFP.
* This file should be used with the model parameter files 'l0040ll_v1p4_1r.mdl', 'l0040ll_v1p4_1r_dio.mdl',
* './bjt/.mdl', 'l0040ll_v1p4_1r_res.ckt', 'l0040ll_v1p4_1r_var.ckt','l0040ll_lpe_v1p4_1r_n11ll.mdl','l0040ll_lpe_v1p4_1r_p11ll.mdl',
* 'l0040ll_lpe_v1p4_1r_nhvt11ll.mdl','l0040ll_lpe_v1p4_1r_phvt11ll.mdl','l0040ll_lpe_v1p4_1r_nlvt11ll.mdl','l0040ll_lpe_v1p4_1r_plvt11ll.mdl',
* 'l0040ll_lpe_v1p4_1r_n25ll.mdl','l0040ll_lpe_v1p4_1r_p25ll.mdl','l0040ll_lpe_v1p4_1r_nod33ll.mdl','l0040ll_lpe_v1p4_1r_pod33ll.mdl',
* 'l0040ll_lpe_v1p4_1r_nud18ll.mdl','l0040ll_lpe_v1p4_1r_pud18ll.mdl', 'l0040ll_v1p4_1r_ldmos.ckt' and 'l0040ll_v1p4_1r_mom.ckt'.
* The "prelayout" is globally changed parameter for MOS device, which has been defined as the switch for contact to poly edge parasitic capacitance.
* The contact to poly edge parasitic capacitance will be included when the flag of prelayout is set to 1 for pre-layout simulation.
* The "flag_cc" is globally changed parameter for 3-T poly resistor device, which has been defined as the switch for poly to poly parasitic capacitance.
* User can include a "pre_layout" library section to set these two flags for pre-layout simulation.
* Please notice that the library "pre_layout" need to be placed behind tt/ff/ss/fnsp/snfp/MOS_MC and res_tt/res_ff/res_ss/res_mc sections to prevent from the redefine(these two flags change back to 0).
* Need to turn off these two flags when do post-layout simulation.
* no part of this file can be released without the consent of smic.

******************  
.lib pre_layout
.option gmindc=1e-14 scale=0.9
.param prelayout=1
.param flag_cc=1
.endl pre_layout

******************
* mos corner model
******************
.lib tt
.option gmindc=1e-14 scale=0.9
.param
+sigma_mis_toxe=agauss(0,3,3)
+sigma_mis_xl=agauss(0,3,3)
+sigma_mis_xw=agauss(0,3,3)
+sigma_mis_vth0=agauss(0,3,3)
+sigma_mis_u0=agauss(0,3,3)
+sigma_mis_voff=agauss(0,3,3)
+sigma_mis_vsat=agauss(0,3,3)

*1.1v core nmos (tt corner)
.subckt n11ll_ckt d g s b w=1e-6 l=1e-6 sa='sar' sb='sbr' sd='sdr' as='asr' ad='adr' ps='psr' pd='pdr' nrd='nrdr' nrs='nrsr' sca=0 scb=0 scc=0 nf=1 mr=1 globalmod=1 mismod=1 dps=0.14u dpcs=0.04u dsts=1u lpemod=1 prelayout=0 dcn='dcnr'
.param
+dmcgr = 3.5e-8
+dmcir = 3.5e-8
+scale_mos = 0.9
+xlr = 5.8e-9
+xwr = 1.7e-8
+sar = '0.261e-6/scale_mos'
+sbr = '0.261e-6/scale_mos'
+sdr = '2*dmcgr/scale_mos'
+adr = '(nf*dmcgr+dmcir)/scale_mos*(w/nf+xwr/scale_mos)'
+asr = '(nf*dmcgr+dmcir)/scale_mos*(w/nf+xwr/scale_mos)'
+pdr = '2*(nf*dmcgr+dmcir)/scale_mos+(nf+1)*(w/nf+xwr/scale_mos)'
+psr = '2*(nf*dmcgr+dmcir)/scale_mos+(nf+1)*(w/nf+xwr/scale_mos)'
+nrdr = 'dmcgr/scale_mos/nf/(w/nf+xwr/scale_mos)'
+nrsr = 'dmcgr/scale_mos/nf/(w/nf+xwr/scale_mos)'
+dcnr = 'max(1,int(((w/nf-0.009*1e-6*2/scale_mos)-0.054*1e-6/scale_mos)/(0.126*1e-6/scale_mos)+1))'
******mismatch******
+lef = 'l*scale_mos+xlr'
+wef = 'w*scale_mos/nf+xwr'
+geo_fac = '1/sqrt(wef*lef*nf*mr)'
+atoxe_n11ll = 4.82135e-019
+axl_n11ll   = 5.73936e-017
+axw_n11ll   = 6.46943e-017
+avth0_n11ll = 2.17575e-009
+au0_n11ll   = 7.22841e-015
+avoff_n11ll = 2.6423e-009
+dtoxe_n11ll_mis    = '0+atoxe_n11ll*geo_fac*sigma_mis_toxe*mismod'
+dxl_n11ll_mis      = '0+axl_n11ll*geo_fac*sigma_mis_xl*mismod'
+dxw_n11ll_mis      = '0+axw_n11ll*geo_fac*sigma_mis_xw*mismod'
+dvth0_n11ll_mis    = '0+avth0_n11ll*geo_fac*sigma_mis_vth0*mismod'
+du0_n11ll_mis      = '0+au0_n11ll*geo_fac*sigma_mis_u0*mismod'
+dvoff_n11ll_mis    = '0+avoff_n11ll*geo_fac*sigma_mis_voff*mismod'
******corner******
+dtoxe_n11ll        = '0+dtoxe_n11ll_mis'
+dxl_n11ll          = '0+dxl_n11ll_mis'
+dxw_n11ll          = '0+dxw_n11ll_mis'
+dvth_n11ll         = '0+dvth0_n11ll_mis'
+du0_n11ll          = '0+du0_n11ll_mis'
+dvoff_n11ll        = '0+dvoff_n11ll_mis'
+dcgdo_n11ll        = '0+prelayout*6.64e-18*dcn/(w*scale_mos)'
+dcgso_n11ll        = '0+prelayout*6.64e-18*dcn/(w*scale_mos)'
+dcjs_n11ll          = 0
+dcjsws_n11ll        = 0
+dcjswgs_n11ll       = 0
+dcf_n11ll           = 0
+dcgdl_n11ll         = 0
+dcgsl_n11ll         = 0
+dlvth0_n11ll        = 0
+dwvth0_n11ll        = 0
+dpvth0_n11ll        = 0
+dlu0_n11ll          = 0
+dlvsat_n11ll        = 0
+dags_n11ll          = 0
+dpvsat_n11ll        = 0
+dlvoff_n11ll        = 0
+dleta0_n11ll        = 0
+dlkt1_n11ll         = 0
+dlat_n11ll          = 0
+dlcit_n11ll         = 0
m1 d g s b n11ll_ckt w=w l=l sa=sa sb=sb sd=sd as=as ad=ad ps=ps pd=pd nrd=nrd nrs=nrs sca=sca scb=scb scc=scc nf=nf m=mr
.inc 'l0040ll_v1p4_1r.mdl'
.inc 'l0040ll_lpe_v1p4_1r_n11ll.mdl'
.ends n11ll_ckt

*1.1v core pmos (tt corner)
.subckt p11ll_ckt d g s b w=1e-6 l=1e-6 sa='sar' sb='sbr' sd='sdr' as='asr' ad='adr' ps='psr' pd='pdr' nrd='nrdr' nrs='nrsr' sca=0 scb=0 scc=0 nf=1 mr=1 globalmod=1 mismod=1 dps=0.14u dpcs=0.04u dsts=1u lpemod=1 prelayout=0 dcn='dcnr'
.param
+dmcgr = 3.5e-8
+dmcir = 3.5e-8
+scale_mos = 0.9
+xlr = 5.1e-9
+xwr = 1.8e-8
+sar = '2.61e-7/scale_mos'
+sbr = '2.61e-7/scale_mos'
+sdr = '2*dmcgr/scale_mos'
+adr = '(nf*dmcgr+dmcir)/scale_mos*(w/nf+xwr/scale_mos)'
+asr = '(nf*dmcgr+dmcir)/scale_mos*(w/nf+xwr/scale_mos)'
+pdr = '2*(nf*dmcgr+dmcir)/scale_mos+(nf+1)*(w/nf+xwr/scale_mos)'
+psr = '2*(nf*dmcgr+dmcir)/scale_mos+(nf+1)*(w/nf+xwr/scale_mos)'
+nrdr = 'dmcgr/scale_mos/nf/(w/nf+xwr/scale_mos)'
+nrsr = 'dmcgr/scale_mos/nf/(w/nf+xwr/scale_mos)'
+dcnr = 'max(1,int(((w/nf-0.009*1e-6*2/scale_mos)-0.054*1e-6/scale_mos)/(0.126*1e-6/scale_mos)+1))'
******mismatch******
+geo_fac              = '1/sqrt(wef*lef*nf*mr)'
+lef                  = 'l*scale_mos+xlr'
+wef                  = 'w*scale_mos/nf+xwr'
+avth0_p11ll          = 1.54741e-009
+avoff_p11ll          = 1.41954e-009 
+atoxe_p11ll          = 7.91588e-019 
+axl_p11ll            = 5.71382e-017 
+axw_p11ll            = 6.44064e-017 
+au0_p11ll            = 8.03123e-012 
+avsat_p11ll          = 0.000549224
+dtoxe_p11ll_mis      ='0+atoxe_p11ll*geo_fac*sigma_mis_toxe*mismod'
+dvth0_p11ll_mis      ='0+avth0_p11ll*geo_fac*sigma_mis_vth0*mismod'
+dvoff_p11ll_mis      ='0+avoff_p11ll*geo_fac*sigma_mis_voff*mismod'
+du0_p11ll_mis        ='0+au0_p11ll*geo_fac*sigma_mis_u0*mismod'
+dxl_p11ll_mis        ='0+axl_p11ll*geo_fac*sigma_mis_xl*mismod'
+dxw_p11ll_mis        ='0+axw_p11ll*geo_fac*sigma_mis_xw*mismod'
+dvsat_p11ll_mis      ='0+avsat_p11ll*geo_fac*sigma_mis_vsat*mismod'
******corner******
+dtoxe_p11ll          ='0+dtoxe_p11ll_mis'
+dvth_p11ll           ='0+dvth0_p11ll_mis'
+dvoff_p11ll          ='0+dvoff_p11ll_mis'
+dxw_p11ll            ='0+dxw_p11ll_mis'
+dxl_p11ll            ='0+dxl_p11ll_mis'
+du0_p11ll            ='0+du0_p11ll_mis'
+dvsat_p11ll          ='0+dvsat_p11ll_mis'
+dcf_p11ll            = 0
+dcjs_p11ll           = 0
+dcjsws_p11ll         = 0
+dcjswgs_p11ll        = 0
+dcgdl_p11ll          = 0
+dcgsl_p11ll          = 0
+dlvth0_p11ll         = 0
+dwvth0_p11ll         = 0
+dpvth0_p11ll         = 0
+dlu0_p11ll           = 0
+dwu0_p11ll           = 0
+dpu0_p11ll           = 0
+dlvsat_p11ll         = 0
+dpvsat_p11ll         = 0
+deta0_p11ll          = 0
+dpvoff_p11ll         = 0
+dcgdo_p11ll          = '0+prelayout*7.63e-18*dcn/(w*scale_mos)'
+dcgso_p11ll          = '0+prelayout*7.63e-18*dcn/(w*scale_mos)'
+dute_p11ll           = 0
+dpute_p11ll          = 0
m1 d g s b p11ll_ckt w=w l=l sa=sa sb=sb sd=sd as=as ad=ad ps=ps pd=pd nrd=nrd nrs=nrs sca=sca scb=scb scc=scc nf=nf m=mr
.inc 'l0040ll_v1p4_1r.mdl'
.inc 'l0040ll_lpe_v1p4_1r_p11ll.mdl'
.ends p11ll_ckt

*1.1v core hvt nmos (tt corner)
.subckt nhvt11ll_ckt d g s b w=1e-6 l=1e-6 sa='sar' sb='sbr' sd='sdr' as='asr' ad='adr' ps='psr' pd='pdr' nrd='nrdr' nrs='nrsr' sca=0 scb=0 scc=0 nf=1 mr=1 globalmod=1 mismod=1 dps=0.14u dpcs=0.04u dsts=1u lpemod=1 prelayout=0 dcn='dcnr'
.param
+dmcgr = 3.5e-8
+dmcir = 3.5e-8
+scale_mos = 0.9
+xlr = 5.8e-9
+xwr = 1.7e-8
+sar = '0.261e-6/scale_mos'
+sbr = '0.261e-6/scale_mos'
+sdr = '2*dmcgr/scale_mos'
+adr = '(nf*dmcgr+dmcir)/scale_mos*(w/nf+xwr/scale_mos)'
+asr = '(nf*dmcgr+dmcir)/scale_mos*(w/nf+xwr/scale_mos)'
+pdr = '2*(nf*dmcgr+dmcir)/scale_mos+(nf+1)*(w/nf+xwr/scale_mos)'
+psr = '2*(nf*dmcgr+dmcir)/scale_mos+(nf+1)*(w/nf+xwr/scale_mos)'
+nrdr = 'dmcgr/scale_mos/nf/(w/nf+xwr/scale_mos)'
+nrsr = 'dmcgr/scale_mos/nf/(w/nf+xwr/scale_mos)'
+dcnr = 'max(1,int(((w/nf-0.009*1e-6*2/scale_mos)-0.054*1e-6/scale_mos)/(0.126*1e-6/scale_mos)+1))'
******mismatch******
+lef = 'l*scale_mos+xlr'
+wef = 'w*scale_mos/nf+xwr'
+geo_fac = '1/sqrt(wef*lef*nf*mr)'
+atoxe_nhvt11ll = 4.82135e-019
+axl_nhvt11ll   = 5.73936e-017
+axw_nhvt11ll   = 6.46943e-017
+avth0_nhvt11ll = 2.39984e-009
+avoff_nhvt11ll = 3.46964e-009
+dtoxe_nhvt11ll_mis    = '0+atoxe_nhvt11ll*geo_fac*sigma_mis_toxe*mismod'
+dxl_nhvt11ll_mis      = '0+axl_nhvt11ll*geo_fac*sigma_mis_xl*mismod'
+dxw_nhvt11ll_mis      = '0+axw_nhvt11ll*geo_fac*sigma_mis_xw*mismod'
+dvth0_nhvt11ll_mis    = '0+avth0_nhvt11ll*geo_fac*sigma_mis_vth0*mismod'
+dvoff_nhvt11ll_mis    = '0+avoff_nhvt11ll*geo_fac*sigma_mis_voff*mismod'
******corner******
+dtoxe_nhvt11ll        = '0+dtoxe_nhvt11ll_mis'
+dxl_nhvt11ll          = '0+dxl_nhvt11ll_mis'
+dxw_nhvt11ll          = '0+dxw_nhvt11ll_mis'
+dvth_nhvt11ll         = '0+dvth0_nhvt11ll_mis'
+dvoff_nhvt11ll        = '0+dvoff_nhvt11ll_mis'
+dcgdo_nhvt11ll        = '0+prelayout*6.64e-18*dcn/(w*scale_mos)'
+dcgso_nhvt11ll        = '0+prelayout*6.64e-18*dcn/(w*scale_mos)'
+dcjs_nhvt11ll          = 0
+dcjsws_nhvt11ll        = 0
+dcjswgs_nhvt11ll       = 0
+dcf_nhvt11ll           = 0
+dcgdl_nhvt11ll         = 0
+dcgsl_nhvt11ll         = 0
+dlvth0_nhvt11ll        = 0
+dwvth0_nhvt11ll        = 0
+dpvth0_nhvt11ll        = 0
+du0_nhvt11ll           = 0
+dlu0_nhvt11ll          = 0
+dlvsat_nhvt11ll        = 0
+dags_nhvt11ll          = 0
+dpvsat_nhvt11ll        = 0
+dlvoff_nhvt11ll        = 0
+dleta0_nhvt11ll        = 0
+dlcit_nhvt11ll         = 0
+dagidl_nhvt11ll        = 0
+dlagidl_nhvt11ll       = 0
+djtsswgd_nhvt11ll      = 0
m1 d g s b nhvt11ll_ckt w=w l=l sa=sa sb=sb sd=sd as=as ad=ad ps=ps pd=pd nrd=nrd nrs=nrs sca=sca scb=scb scc=scc nf=nf m=mr
.inc 'l0040ll_v1p4_1r.mdl'
.inc 'l0040ll_lpe_v1p4_1r_nhvt11ll.mdl'
.ends nhvt11ll_ckt

*1.1v core hvt pmos (tt corner)
.subckt phvt11ll_ckt d g s b w=1e-6 l=1e-6 sa='sar' sb='sbr' sd='sdr' as='asr' ad='adr' ps='psr' pd='pdr' nrd='nrdr' nrs='nrsr' sca=0 scb=0 scc=0 nf=1 mr=1 globalmod=1 mismod=1 dps=0.14u dpcs=0.04u dsts=1u lpemod=1 prelayout=0 dcn='dcnr'
.param
+dmcgr = 3.5e-8
+dmcir = 3.5e-8
+scale_mos = 0.9
+xlr = 5.1e-9
+xwr = 1.8e-8
+sar = '2.61e-7/scale_mos'
+sbr = '2.61e-7/scale_mos'
+sdr = '2*dmcgr/scale_mos'
+adr = '(nf*dmcgr+dmcir)/scale_mos*(w/nf+xwr/scale_mos)'
+asr = '(nf*dmcgr+dmcir)/scale_mos*(w/nf+xwr/scale_mos)'
+pdr = '2*(nf*dmcgr+dmcir)/scale_mos+(nf+1)*(w/nf+xwr/scale_mos)'
+psr = '2*(nf*dmcgr+dmcir)/scale_mos+(nf+1)*(w/nf+xwr/scale_mos)'
+nrdr = 'dmcgr/scale_mos/nf/(w/nf+xwr/scale_mos)'
+nrsr = 'dmcgr/scale_mos/nf/(w/nf+xwr/scale_mos)'
+dcnr = 'max(1,int(((w/nf-0.009*1e-6*2/scale_mos)-0.054*1e-6/scale_mos)/(0.126*1e-6/scale_mos)+1))'
******mismatch******
+dtoxe_phvt11ll_mis  = '0+atoxe_phvt11ll*geo_fac*sigma_mis_toxe*mismod'
+dvth0_phvt11ll_mis  = '0+avth0_phvt11ll*geo_fac*sigma_mis_vth0*mismod'
+dvoff_phvt11ll_mis  = '0+avoff_phvt11ll*geo_fac*sigma_mis_voff*mismod'
+dxl_phvt11ll_mis  = '0+axl_phvt11ll*geo_fac*sigma_mis_xl*mismod'
+dxw_phvt11ll_mis  = '0+axw_phvt11ll*geo_fac*sigma_mis_xw*mismod'
+geo_fac             = '1/sqrt(wef*lef*nf*mr)'
+lef                 = 'l*scale_mos+xlr'
+wef                 = 'w*scale_mos/nf+xwr'
+atoxe_phvt11ll      = 7.91588e-019
+avth0_phvt11ll      = 2.01495e-009
+avoff_phvt11ll      = 7.19625e-010
+axl_phvt11ll      = 5.71382e-017
+axw_phvt11ll      = 6.44064e-017
******corner******
+dtoxe_phvt11ll      = '0+dtoxe_phvt11ll_mis'
+dvth_phvt11ll       = '0+dvth0_phvt11ll_mis'
+dxw_phvt11ll        = '0+dxw_phvt11ll_mis'
+dxl_phvt11ll        = '0+dxl_phvt11ll_mis'
+dvoff_phvt11ll     = '0+dvoff_phvt11ll_mis'
+dcf_phvt11ll        = 0
+dcjs_phvt11ll       = 0
+dcjsws_phvt11ll     = 0
+dcjswgs_phvt11ll    = 0
+dcgdo_phvt11ll      = '0+prelayout*7.63e-18*dcn/(w*scale_mos)'
+dcgso_phvt11ll      = '0+prelayout*7.63e-18*dcn/(w*scale_mos)'
+dcgdl_phvt11ll      = 0
+dcgsl_phvt11ll      = 0
+dlvth0_phvt11ll     = 0
+dwvth0_phvt11ll     = 0
+dpvth0_phvt11ll     = 0
+dlu0_phvt11ll       = 0
+dpu0_phvt11ll       = 0
+dlvsat_phvt11ll     = 0
+dwvsat_phvt11ll     = 0
+dleta0_phvt11ll     = 0
+dpeta0_phvt11ll     = 0
+dagidl_phvt11ll     = 0
+du0_phvt11ll        = 0
+dlvoff_phvt11ll     = 0
+dute_phvt11ll       = 0
+dlute_phvt11ll      = 0
m1 d g s b phvt11ll_ckt w=w l=l sa=sa sb=sb sd=sd as=as ad=ad ps=ps pd=pd nrd=nrd nrs=nrs sca=sca scb=scb scc=scc nf=nf m=mr
.inc 'l0040ll_v1p4_1r.mdl'
.inc 'l0040ll_lpe_v1p4_1r_phvt11ll.mdl'
.ends phvt11ll_ckt

*1.1v core lvt nmos (tt corner)
.subckt nlvt11ll_ckt d g s b w=1e-6 l=1e-6 sa='sar' sb='sbr' sd='sdr' as='asr' ad='adr' ps='psr' pd='pdr' nrd='nrdr' nrs='nrsr' sca=0 scb=0 scc=0 nf=1 mr=1 globalmod=1 mismod=1 dps=0.14u dpcs=0.04u dsts=1u lpemod=1 prelayout=0 dcn='dcnr'
.param
+dmcgr = 3.5e-8
+dmcir = 3.5e-8
+scale_mos = 0.9
+xlr = 5.8e-9
+xwr = 1.7e-8
+sar = '0.261e-6/scale_mos'
+sbr = '0.261e-6/scale_mos'
+sdr = '2*dmcgr/scale_mos'
+adr = '(nf*dmcgr+dmcir)/scale_mos*(w/nf+xwr/scale_mos)'
+asr = '(nf*dmcgr+dmcir)/scale_mos*(w/nf+xwr/scale_mos)'
+pdr = '2*(nf*dmcgr+dmcir)/scale_mos+(nf+1)*(w/nf+xwr/scale_mos)'
+psr = '2*(nf*dmcgr+dmcir)/scale_mos+(nf+1)*(w/nf+xwr/scale_mos)'
+nrdr = 'dmcgr/scale_mos/nf/(w/nf+xwr/scale_mos)'
+nrsr = 'dmcgr/scale_mos/nf/(w/nf+xwr/scale_mos)'
+dcnr = 'max(1,int(((w/nf-0.009*1e-6*2/scale_mos)-0.054*1e-6/scale_mos)/(0.126*1e-6/scale_mos)+1))'
******mismatch******
+lef = 'l*scale_mos+xlr'
+wef = 'w*scale_mos/nf+xwr'
+geo_fac = '1/sqrt(wef*lef*nf*mr)'
+atoxe_nlvt11ll = 7.22841e-038
+axl_nlvt11ll   = 7.22841e-038
+axw_nlvt11ll   = 7.22841e-038
+avth0_nlvt11ll = 2.07999e-009
+au0_nlvt11ll   = 1.12999e-012
+avoff_nlvt11ll = 2.6e-009
+dtoxe_nlvt11ll_mis    = '0+atoxe_nlvt11ll*geo_fac*sigma_mis_toxe*mismod'
+dxl_nlvt11ll_mis      = '0+axl_nlvt11ll*geo_fac*sigma_mis_xl*mismod'
+dxw_nlvt11ll_mis      = '0+axw_nlvt11ll*geo_fac*sigma_mis_xw*mismod'
+dvth0_nlvt11ll_mis    = '0+avth0_nlvt11ll*geo_fac*sigma_mis_vth0*mismod'
+du0_nlvt11ll_mis      = '0+au0_nlvt11ll*geo_fac*sigma_mis_u0*mismod'
+dvoff_nlvt11ll_mis    = '0+avoff_nlvt11ll*geo_fac*sigma_mis_voff*mismod'
******corner******
+dtoxe_nlvt11ll        = '0+dtoxe_nlvt11ll_mis'
+dxl_nlvt11ll          = '0+dxl_nlvt11ll_mis'
+dxw_nlvt11ll          = '0+dxw_nlvt11ll_mis'
+dvth_nlvt11ll         = '0+dvth0_nlvt11ll_mis'
+du0_nlvt11ll          = '0+du0_nlvt11ll_mis'
+dvoff_nlvt11ll        = '0+dvoff_nlvt11ll_mis'
+dcgdo_nlvt11ll        = '0+prelayout*6.64e-18*dcn/(w*scale_mos)'
+dcgso_nlvt11ll        = '0+prelayout*6.64e-18*dcn/(w*scale_mos)'
+dcjs_nlvt11ll          = 0
+dcjsws_nlvt11ll        = 0
+dcjswgs_nlvt11ll       = 0
+dcf_nlvt11ll           = 0
+dcgdl_nlvt11ll         = 0
+dcgsl_nlvt11ll         = 0
+dlvth0_nlvt11ll        = 0
+dwvth0_nlvt11ll        = 0
+dpvth0_nlvt11ll        = 0
+dlu0_nlvt11ll          = 0
+dpu0_nlvt11ll          = 0
+dlvsat_nlvt11ll        = 0
+dags_nlvt11ll          = 0
+dpvsat_nlvt11ll        = 0
+dlvoff_nlvt11ll        = 0
+dleta0_nlvt11ll        = 0
m1 d g s b nlvt11ll_ckt w=w l=l sa=sa sb=sb sd=sd as=as ad=ad ps=ps pd=pd nrd=nrd nrs=nrs sca=sca scb=scb scc=scc nf=nf m=mr
.inc 'l0040ll_v1p4_1r.mdl'
.inc 'l0040ll_lpe_v1p4_1r_nlvt11ll.mdl'
.ends nlvt11ll_ckt

*1.1v core lvt pmos (tt corner)
.subckt plvt11ll_ckt d g s b w=1e-6 l=1e-6 sa='sar' sb='sbr' sd='sdr' as='asr' ad='adr' ps='psr' pd='pdr' nrd='nrdr' nrs='nrsr' sca=0 scb=0 scc=0 nf=1 mr=1 globalmod=1 mismod=1 dps=0.14u dpcs=0.04u dsts=1u lpemod=1 prelayout=0 dcn='dcnr'
.param
+dmcgr = 3.5e-8
+dmcir = 3.5e-8
+scale_mos = 0.9
+xlr = 5.1e-9
+xwr = 1.8e-8
+sar = '2.61e-7/scale_mos'
+sbr = '2.61e-7/scale_mos'
+sdr = '2*dmcgr/scale_mos'
+adr = '(nf*dmcgr+dmcir)/scale_mos*(w/nf+xwr/scale_mos)'
+asr = '(nf*dmcgr+dmcir)/scale_mos*(w/nf+xwr/scale_mos)'
+pdr = '2*(nf*dmcgr+dmcir)/scale_mos+(nf+1)*(w/nf+xwr/scale_mos)'
+psr = '2*(nf*dmcgr+dmcir)/scale_mos+(nf+1)*(w/nf+xwr/scale_mos)'
+nrdr = 'dmcgr/scale_mos/nf/(w/nf+xwr/scale_mos)'
+nrsr = 'dmcgr/scale_mos/nf/(w/nf+xwr/scale_mos)'
+dcnr = 'max(1,int(((w/nf-0.009*1e-6*2/scale_mos)-0.054*1e-6/scale_mos)/(0.126*1e-6/scale_mos)+1))'
******mismatch******
+dvth0_plvt11ll_mis   = '0+avth0_plvt11ll*geo_fac*sigma_mis_vth0*mismod'
+du0_plvt11ll_mis     = '0+au0_plvt11ll*geo_fac*sigma_mis_u0*mismod'
+dvoff_plvt11ll_mis   = '0+avoff_plvt11ll*geo_fac*sigma_mis_voff*mismod'
+dtoxe_plvt11ll_mis   = '0+atoxe_plvt11ll*geo_fac*sigma_mis_toxe*mismod'
+dxl_plvt11ll_mis     = '0+axl_plvt11ll*geo_fac*sigma_mis_xl*mismod'
+dxw_plvt11ll_mis     = '0+axw_plvt11ll*geo_fac*sigma_mis_xw*mismod'
+geo_fac              = '1/sqrt(wef*lef*nf*mr)'
+lef                  = 'l*scale_mos+xlr'
+wef                  = 'w*scale_mos/nf+xwr'
+avth0_plvt11ll       = 2.11e-009
+au0_plvt11ll         = 7.7e-012
+avoff_plvt11ll       = 3.3e-010
+atoxe_plvt11ll       = 7.196e-038
+axl_plvt11ll         = 7.196e-038
+axw_plvt11ll         = 7.196e-038
******corner******
+dvth_plvt11ll        = '0+dvth0_plvt11ll_mis'
+du0_plvt11ll         = '0+du0_plvt11ll_mis'
+dlu0_plvt11ll        = 0
+dvoff_plvt11ll       = '0+dvoff_plvt11ll_mis'
+dtoxe_plvt11ll       = '0+dtoxe_plvt11ll_mis'
+dxl_plvt11ll         = '0+dxl_plvt11ll_mis'
+dxw_plvt11ll         = '0+dxw_plvt11ll_mis'
+dcjs_plvt11ll        = 0
+dcjsws_plvt11ll      = 0
+dcjswgs_plvt11ll     = 0
+dcgdo_plvt11ll       = '0+prelayout*7.63e-18*dcn/(w*scale_mos)'
+dcgso_plvt11ll       = '0+prelayout*7.63e-18*dcn/(w*scale_mos)'
+dcgdl_plvt11ll       = 0
+dcgsl_plvt11ll       = 0
+dcf_plvt11ll         = 0
+dlvth0_plvt11ll      = 0
+dwvth0_plvt11ll      = 0
+dpvth0_plvt11ll      = 0
+dlvsat_plvt11ll      = 0
+dpvsat_plvt11ll      = 0
+dleta0_plvt11ll      = 0
+dlvoff_plvt11ll      = 0
m1 d g s b plvt11ll_ckt w=w l=l sa=sa sb=sb sd=sd as=as ad=ad ps=ps pd=pd nrd=nrd nrs=nrs sca=sca scb=scb scc=scc nf=nf m=mr
.inc 'l0040ll_v1p4_1r.mdl'
.inc 'l0040ll_lpe_v1p4_1r_plvt11ll.mdl'
.ends plvt11ll_ckt

*1.1v core native nmos (tt corner)
.subckt nt11ll_ckt d g s b w=1e-6 l=1e-6 sa='sar' sb='sbr' sd='sdr' as='asr' ad='adr' ps='psr' pd='pdr' nrd='nrdr' nrs='nrsr' sca=0 scb=0 scc=0 nf=1 mr=1 globalmod=1 mismod=1 prelayout=0 dcn='dcnr'
.param
+dmcgr = 3.5e-8
+dmcir = 3.5e-8
+scale_mos = 0.9
+xlr = 5.8e-9
+xwr = 1.7e-8
+sar = '0.261e-6/scale_mos'
+sbr = '0.261e-6/scale_mos'
+sdr = '2*dmcgr/scale_mos'
+adr = '(nf*dmcgr+dmcir)/scale_mos*(w/nf+xwr/scale_mos)'
+asr = '(nf*dmcgr+dmcir)/scale_mos*(w/nf+xwr/scale_mos)'
+pdr = '2*(nf*dmcgr+dmcir)/scale_mos+(nf+1)*(w/nf+xwr/scale_mos)'
+psr = '2*(nf*dmcgr+dmcir)/scale_mos+(nf+1)*(w/nf+xwr/scale_mos)'
+nrdr = 'dmcgr/scale_mos/nf/(w/nf+xwr/scale_mos)'
+nrsr = 'dmcgr/scale_mos/nf/(w/nf+xwr/scale_mos)'
+dcnr = 'max(1,int(((w/nf-0.009*1e-6*2/scale_mos)-0.054*1e-6/scale_mos)/(0.126*1e-6/scale_mos)+1))'
******mismatch******
+dvth0_nt11ll_mis     = '0+avth0_nt11ll*geo_fac*sigma_mis_vth0*mismod'
+dvoff_nt11ll_mis     = '0+avoff_nt11ll*geo_fac*sigma_mis_voff*mismod'
+geo_fac              = '1/sqrt(wef*lef*nf*mr)'
+lef                  = 'l*scale_mos+xlr'
+wef                  = 'w*scale_mos/nf+xwr'
+avth0_nt11ll         = 4e-09
+avoff_nt11ll         = 4e-09
******corner******
+dvth_nt11ll          = '0+dvth0_nt11ll_mis'
+dvoff_nt11ll         = '0+dvoff_nt11ll_mis'
+dtoxe_nt11ll         = 0
+dxl_nt11ll           = 0
+dxw_nt11ll           = 0
+dcjs_nt11ll          = 0
+dcjsws_nt11ll        = 0
+dcjswgs_nt11ll       = 0
+dcgdo_nt11ll         = '0+prelayout*6.64e-18*dcn/(w*scale_mos)'
+dcgso_nt11ll         = '0+prelayout*6.64e-18*dcn/(w*scale_mos)'
+dcgdl_nt11ll         = 0
+dcgsl_nt11ll         = 0
+dcf_nt11ll           = 0
+dlvth0_nt11ll        = 0
+dwvth0_nt11ll        = 0
+dpvth0_nt11ll        = 0
+du0_nt11ll           = 0
+dlu0_nt11ll          = 0
+dwu0_nt11ll          = 0
+dpu0_nt11ll          = 0
+da0_nt11ll           = 0
+dlvsat_nt11ll        = 0
+dpvsat_nt11ll        = 0
m1 d g s b nt11ll_ckt w=w l=l sa=sa sb=sb sd=sd as=as ad=ad ps=ps pd=pd nrd=nrd nrs=nrs sca=sca scb=scb scc=scc nf=nf m=mr
.inc 'l0040ll_v1p4_1r.mdl'
.ends nt11ll_ckt

*2.5v io2 nmos  (tt corner)
.subckt n25ll_ckt d g s b w=1e-6 l=1e-6 sa='sar' sb='sbr' sd='sdr' as='asr' ad='adr' ps='psr' pd='pdr' nrd='nrdr' nrs='nrsr' sca=0 scb=0 scc=0 nf=1 mr=1 globalmod=1 mismod=1 dps=0.22u dpcs=0.08u dsts=1u lpemod=1 prelayout=0 dcn='dcnr'
.param
+dmcgr = 7.1e-8
+dmcir = 7.1e-8
+scale_mos = 0.9
+xlr = 1e-008
+xwr = 1.5e-008
+sar = '0.261e-6/scale_mos'
+sbr = '0.261e-6/scale_mos'
+sdr = '2*dmcgr/scale_mos'
+adr = '(nf*dmcgr+dmcir)/scale_mos*(w/nf+xwr/scale_mos)'
+asr = '(nf*dmcgr+dmcir)/scale_mos*(w/nf+xwr/scale_mos)'
+pdr = '2*(nf*dmcgr+dmcir)/scale_mos+(nf+1)*(w/nf+xwr/scale_mos)'
+psr = '2*(nf*dmcgr+dmcir)/scale_mos+(nf+1)*(w/nf+xwr/scale_mos)'
+nrdr = 'dmcgr/scale_mos/nf/(w/nf+xwr/scale_mos)'
+nrsr = 'dmcgr/scale_mos/nf/(w/nf+xwr/scale_mos)'
+dcnr = 'max(1,int(((w/nf-0.009*1e-6*2/scale_mos)-0.054*1e-6/scale_mos)/(0.126*1e-6/scale_mos)+1))'
******mismatch******
+lef = 'l*scale_mos+xlr'
+wef = 'w*scale_mos/nf+xwr'
+geo_fac = '1/sqrt(wef*lef*nf*mr)'
+atoxe_n25ll = 1.22206e-017
+avth0_n25ll = 4.9654e-009
+au0_n25ll = 2.0732e-010
+avoff_n25ll = 4.32949e-009
+axl_n25ll = 2.61683e-016
+axw_n25ll = 4.97198e-016
+dtoxe_n25ll_mis = '0+atoxe_n25ll*geo_fac*sigma_mis_toxe*mismod'
+dvth0_n25ll_mis = '0+avth0_n25ll*geo_fac*sigma_mis_vth0*mismod'
+du0_n25ll_mis = '0+au0_n25ll*geo_fac*sigma_mis_u0*mismod'
+dvoff_n25ll_mis = '0+avoff_n25ll*geo_fac*sigma_mis_voff*mismod'
+dxl_n25ll_mis = '0+axl_n25ll*geo_fac*sigma_mis_xl*mismod'
+dxw_n25ll_mis = '0+axw_n25ll*geo_fac*sigma_mis_xw*mismod'
******corner******
+dtoxe_n25ll = '0+dtoxe_n25ll_mis'
+dvth0_n25ll = '0+dvth0_n25ll_mis'
+du0_n25ll = '0+du0_n25ll_mis'
+dvoff_n25ll = '0+dvoff_n25ll_mis'
+dxl_n25ll = '0+dxl_n25ll_mis'
+dxw_n25ll = '0+dxw_n25ll_mis'
+dcgdo_n25ll = '0+prelayout*5.28e-18*dcn/(w*scale_mos)'
+dcgso_n25ll = '0+prelayout*5.28e-18*dcn/(w*scale_mos)'
+dcjs_n25ll = 0
+dcjsws_n25ll = 0
+dcjswgs_n25ll = 0
+dcgdl_n25ll = 0
+dcgsl_n25ll = 0
+dcf_n25ll = 0
+dlvth0_n25ll = 0
+dwvth0_n25ll = 0
+dpvth0_n25ll = 0
+dwu0_n25ll = 0
+dlu0_n25ll = 0
+dpu0_n25ll = 0
+dwvsat_n25ll = 0
+dlvsat_n25ll = 0
+dpvsat_n25ll = 0
m1 d g s b n25ll_ckt w=w l=l sa=sa sb=sb sd=sd as=as ad=ad ps=ps pd=pd nrd=nrd nrs=nrs sca=sca scb=scb scc=scc nf=nf m=mr
.inc 'l0040ll_v1p4_1r.mdl'
.inc 'l0040ll_lpe_v1p4_1r_n25ll.mdl'
.ends n25ll_ckt

*2.5v od 3.3v io2 nmos (tt corner)
.subckt nod33ll_ckt d g s b w=1e-6 l=1e-6 sa='sar' sb='sbr' sd='sdr' as='asr' ad='adr' ps='psr' pd='pdr' nrd='nrdr' nrs='nrsr' sca=0 scb=0 scc=0 nf=1 mr=1 globalmod=1 mismod=1 dps=0.22u dpcs=0.08u dsts=1u lpemod=1 prelayout=0 dcn='dcnr'
.param
+dmcgr = 7.1e-8
+dmcir = 7.1e-8
+scale_mos = 0.9
+xlr = '1e-008+2.7e-8'
+xwr = 1.5e-008
+sar = '0.261e-6/scale_mos'
+sbr = '0.261e-6/scale_mos'
+sdr = '2*dmcgr/scale_mos'
+adr = '(nf*dmcgr+dmcir)/scale_mos*(w/nf+xwr/scale_mos)'
+asr = '(nf*dmcgr+dmcir)/scale_mos*(w/nf+xwr/scale_mos)'
+pdr = '2*(nf*dmcgr+dmcir)/scale_mos+(nf+1)*(w/nf+xwr/scale_mos)'
+psr = '2*(nf*dmcgr+dmcir)/scale_mos+(nf+1)*(w/nf+xwr/scale_mos)'
+nrdr = 'dmcgr/scale_mos/nf/(w/nf+xwr/scale_mos)'
+nrsr = 'dmcgr/scale_mos/nf/(w/nf+xwr/scale_mos)'
+dcnr = 'max(1,int(((w/nf-0.009*1e-6*2/scale_mos)-0.054*1e-6/scale_mos)/(0.126*1e-6/scale_mos)+1))'
******mismatch******
+lef = 'l*scale_mos+xlr'
+wef = 'w*scale_mos/nf+xwr'
+geo_fac = '1/sqrt(wef*lef*nf*mr)'
+atoxe_nod33ll = 1.22206e-017
+avth0_nod33ll = 4.9654e-009
+au0_nod33ll = 2.0732e-010
+avoff_nod33ll = 4.32949e-009
+axl_nod33ll = 2.61683e-016
+axw_nod33ll = 4.97198e-016
+dtoxe_nod33ll_mis = '0+atoxe_nod33ll*geo_fac*sigma_mis_toxe*mismod'
+dvth0_nod33ll_mis = '0+avth0_nod33ll*geo_fac*sigma_mis_vth0*mismod'
+du0_nod33ll_mis = '0+au0_nod33ll*geo_fac*sigma_mis_u0*mismod'
+dvoff_nod33ll_mis = '0+avoff_nod33ll*geo_fac*sigma_mis_voff*mismod'
+dxl_nod33ll_mis = '0+axl_nod33ll*geo_fac*sigma_mis_xl*mismod'
+dxw_nod33ll_mis = '0+axw_nod33ll*geo_fac*sigma_mis_xw*mismod'
******corner******
+dtoxe_nod33ll = '0+dtoxe_nod33ll_mis'
+dvth0_nod33ll = '0+dvth0_nod33ll_mis'
+du0_nod33ll = '0+du0_nod33ll_mis'
+dvoff_nod33ll = '0+dvoff_nod33ll_mis'
+dxl_nod33ll = '0+dxl_nod33ll_mis'
+dxw_nod33ll = '0+dxw_nod33ll_mis'
+dcgdo_nod33ll = '0+prelayout*5.28e-18*dcn/(w*scale_mos)'
+dcgso_nod33ll = '0+prelayout*5.28e-18*dcn/(w*scale_mos)'
+dcjs_nod33ll = 0
+dcjsws_nod33ll = 0
+dcjswgs_nod33ll = 0
+dcgdl_nod33ll = 0
+dcgsl_nod33ll = 0
+dcf_nod33ll = 0
+dlvth0_nod33ll = 0
+dwvth0_nod33ll = 0
+dpvth0_nod33ll = 0
+dwu0_nod33ll = 0
+dlu0_nod33ll = 0
+dpu0_nod33ll = 0
+dwvsat_nod33ll = 0
+dlvsat_nod33ll = 0
+dpvsat_nod33ll = 0
m1 d g s b nod33ll_ckt w=w l=l sa=sa sb=sb sd=sd as=as ad=ad ps=ps pd=pd nrd=nrd nrs=nrs sca=sca scb=scb scc=scc nf=nf m=mr
.inc 'l0040ll_v1p4_1r.mdl'
.inc 'l0040ll_lpe_v1p4_1r_nod33ll.mdl'
.ends nod33ll_ckt

*2.5v ud 1.8v io2 nmos (tt corner)
.subckt nud18ll_ckt d g s b w=1e-6 l=1e-6 sa='sar' sb='sbr' sd='sdr' as='asr' ad='adr' ps='psr' pd='pdr' nrd='nrdr' nrs='nrsr' sca=0 scb=0 scc=0 nf=1 mr=1 globalmod=1 mismod=1 dps=0.22u dpcs=0.08u dsts=1u lpemod=1 prelayout=0 dcn='dcnr'
.param
+dmcgr = 7.1e-8
+dmcir = 7.1e-8
+scale_mos = 0.9
+xlr = 1e-008
+xwr = 1.5e-008
+sar = '0.261e-6/scale_mos'
+sbr = '0.261e-6/scale_mos'
+sdr = '2*dmcgr/scale_mos'
+adr = '(nf*dmcgr+dmcir)/scale_mos*(w/nf+xwr/scale_mos)'
+asr = '(nf*dmcgr+dmcir)/scale_mos*(w/nf+xwr/scale_mos)'
+pdr = '2*(nf*dmcgr+dmcir)/scale_mos+(nf+1)*(w/nf+xwr/scale_mos)'
+psr = '2*(nf*dmcgr+dmcir)/scale_mos+(nf+1)*(w/nf+xwr/scale_mos)'
+nrdr = 'dmcgr/scale_mos/nf/(w/nf+xwr/scale_mos)'
+nrsr = 'dmcgr/scale_mos/nf/(w/nf+xwr/scale_mos)'
+dcnr = 'max(1,int(((w/nf-0.009*1e-6*2/scale_mos)-0.054*1e-6/scale_mos)/(0.126*1e-6/scale_mos)+1))'
******mismatch******
+lef = 'l*scale_mos+xlr'
+wef = 'w*scale_mos/nf+xwr'
+geo_fac = '1/sqrt(wef*lef*nf*mr)'
+atoxe_nud18ll = 1.22206e-017
+avth0_nud18ll = 4.9654e-009
+au0_nud18ll = 2.0732e-010
+avoff_nud18ll = 4.32949e-009
+axl_nud18ll = 2.61683e-016
+axw_nud18ll = 4.97198e-016
+dtoxe_nud18ll_mis = '0+atoxe_nud18ll*geo_fac*sigma_mis_toxe*mismod'
+dvth0_nud18ll_mis = '0+avth0_nud18ll*geo_fac*sigma_mis_vth0*mismod'
+du0_nud18ll_mis = '0+au0_nud18ll*geo_fac*sigma_mis_u0*mismod'
+dvoff_nud18ll_mis = '0+avoff_nud18ll*geo_fac*sigma_mis_voff*mismod'
+dxl_nud18ll_mis = '0+axl_nud18ll*geo_fac*sigma_mis_xl*mismod'
+dxw_nud18ll_mis = '0+axw_nud18ll*geo_fac*sigma_mis_xw*mismod'
******corner******
+dtoxe_nud18ll = '0+dtoxe_nud18ll_mis'
+dvth0_nud18ll = '0+dvth0_nud18ll_mis'
+du0_nud18ll = '0+du0_nud18ll_mis'
+dvoff_nud18ll = '0+dvoff_nud18ll_mis'
+dxl_nud18ll = '0+dxl_nud18ll_mis'
+dxw_nud18ll = '0+dxw_nud18ll_mis'
+dcgdo_nud18ll = '0+prelayout*5.28e-18*dcn/(w*scale_mos)'
+dcgso_nud18ll = '0+prelayout*5.28e-18*dcn/(w*scale_mos)'
+dcjs_nud18ll = 0
+dcjsws_nud18ll = 0
+dcjswgs_nud18ll = 0
+dcgdl_nud18ll = 0
+dcgsl_nud18ll = 0
+dcf_nud18ll = 0
+dlvth0_nud18ll = 0
+dwvth0_nud18ll = 0
+dpvth0_nud18ll = 0
+dwu0_nud18ll = 0
+dlu0_nud18ll = 0
+dpu0_nud18ll = 0
+dwvsat_nud18ll = 0
+dlvsat_nud18ll = 0
+dpvsat_nud18ll = 0
m1 d g s b nud18ll_ckt w=w l=l sa=sa sb=sb sd=sd as=as ad=ad ps=ps pd=pd nrd=nrd nrs=nrs sca=sca scb=scb scc=scc nf=nf m=mr
.inc 'l0040ll_v1p4_1r.mdl'
.inc 'l0040ll_lpe_v1p4_1r_nud18ll.mdl'
.ends nud18ll_ckt

*2.5v io pmos (tt corner)
.subckt p25ll_ckt d g s b w=1e-6 l=1e-6 sa='sar' sb='sbr' sd='sdr' as='asr' ad='adr' ps='psr' pd='pdr' nrd='nrdr' nrs='nrsr' sca=0 scb=0 scc=0 nf=1 mr=1 globalmod=1 mismod=1 dps=0.22u dpcs=0.08u dsts=1u lpemod=1 prelayout=0 dcn='dcnr'
.param
+dmcgr = 7.1e-8
+dmcir = 7.1e-8
+scale_mos = 0.9
+xlr = 1e-8
+xwr = 1.5e-8
+sar = '0.261e-6/scale_mos'
+sbr = '0.261e-6/scale_mos'
+sdr = '2*dmcgr/scale_mos'
+adr = '(nf*dmcgr+dmcir)/scale_mos*(w/nf+xwr/scale_mos)'
+asr = '(nf*dmcgr+dmcir)/scale_mos*(w/nf+xwr/scale_mos)'
+pdr = '2*(nf*dmcgr+dmcir)/scale_mos+(nf+1)*(w/nf+xwr/scale_mos)'
+psr = '2*(nf*dmcgr+dmcir)/scale_mos+(nf+1)*(w/nf+xwr/scale_mos)'
+nrdr = 'dmcgr/scale_mos/nf/(w/nf+xwr/scale_mos)'
+nrsr = 'dmcgr/scale_mos/nf/(w/nf+xwr/scale_mos)'
+dcnr = 'max(1,int(((w/nf-0.009*1e-6*2/scale_mos)-0.054*1e-6/scale_mos)/(0.126*1e-6/scale_mos)+1))'
******mismatch******
+geo_fac='1/sqrt(wef*lef*nf*mr)'
+lef='l*scale_mos+xlr'
+wef='w*scale_mos/nf+xwr'
+atoxe_p25ll=8.63557e-018
+avth0_p25ll=4.84114e-009
+axl_p25ll=3.14019e-016
+axw_p25ll=2.35515e-016
+dtoxe_p25ll_mis    = 'atoxe_p25ll*geo_fac*sigma_mis_toxe*mismod'
+dvth0_p25ll_mis    = 'avth0_p25ll*geo_fac*sigma_mis_vth0*mismod'
+dxl_p25ll_mis      = 'axl_p25ll*geo_fac*sigma_mis_xl*mismod'
+dxw_p25ll_mis      = 'axw_p25ll*geo_fac*sigma_mis_xw*mismod'
******corner******
+dtoxe_p25ll     = '0+dtoxe_p25ll_mis'
+dvth0_p25ll     = '0+dvth0_p25ll_mis'
+dxl_p25ll       = '0+dxl_p25ll_mis'
+dxw_p25ll       = '0+dxw_p25ll_mis'
+dcgdo_p25ll      = '0+prelayout*5.79e-18*dcn/(w*scale_mos)'
+dcgso_p25ll      = '0+prelayout*5.79e-18*dcn/(w*scale_mos)'
+dcjs_p25ll       = 0
+dcjsws_p25ll     = 0
+dcjswgs_p25ll    = 0
+dcf_p25ll        = 0
+dcgdl_p25ll      = 0
+dcgsl_p25ll      = 0
+dlvth0_p25ll     = 0
+dpvth0_p25ll     = 0
+du0_p25ll        = 0
+dlu0_p25ll       = 0
+dpu0_p25ll       = 0
+djtsswgd_p25ll   = 0
+djtsswgs_p25ll   = 0
m1 d g s b p25ll_ckt w=w l=l sa=sa sb=sb sd=sd as=as ad=ad ps=ps pd=pd nrd=nrd nrs=nrs sca=sca scb=scb scc=scc nf=nf m=mr
.inc 'l0040ll_v1p4_1r.mdl'
.inc 'l0040ll_lpe_v1p4_1r_p25ll.mdl'
.ends p25ll_ckt

*2.5v od 3.3v io pmos (tt corner)
.subckt pod33ll_ckt d g s b w=1e-6 l=1e-6 sa='sar' sb='sbr' sd='sdr' as='asr' ad='adr' ps='psr' pd='pdr' nrd='nrdr' nrs='nrsr' sca=0 scb=0 scc=0 nf=1 mr=1 globalmod=1 mismod=1 dps=0.22u dpcs=0.08u dsts=1u lpemod=1 prelayout=0 dcn='dcnr'
.param
+dmcgr = 7.1e-8
+dmcir = 7.1e-8
+scale_mos = 0.9
+xlr = 1e-8
+xwr = 1.5e-8
+sar = '0.261e-6/scale_mos'
+sbr = '0.261e-6/scale_mos'